First line in new file
New line.
Added 2nd line.